/*--------------------------------*- C++ -*----------------------------------*\
| =========                 |                                                 |
| \\      /  F ield         | OpenFOAM: The Open Source CFD Toolbox           |
|  \\    /   O peration     | Version:  v2406                                 |
|   \\  /    A nd           | Website:  www.openfoam.com                      |
|    \\/     M anipulation  |                                                 |
\*---------------------------------------------------------------------------*/
FoamFile
{
    version     2.0;
    format      ascii;
    class       volScalarField;
    object      k;
}
// * * * * * * * * * * * * * * * * * * * * * * * * * * * * * * * * * * * * * //

#include        "include/initialConditions"

dimensions      [0 2 -2 0 0 0 0];

internalField   uniform $turbulentKE;

boundaryField
{
    #includeEtc "caseDicts/setConstraintTypes"

    //- Define inlet conditions
    #include "include/fixedInlet"

    inlet
    {
        type fixedValue; // Fixed turbulent kinetic energy
        value $internalField;
    }
    outlet
    {
        type zeroGradient; // Free outflow condition
    }
    lowerWall
    {
        type kqRWallFunction; // Wall turbulent kinetic energy function
        value $internalField;
    }
    Boeing737Max8
    {
        type kqRWallFunction; // Wall turbulent kinetic energy function
        value $internalField;
    }
    frontAndBack
    {
        type symmetryPlane;
    }
    upperWall
    {
        type symmetryPlane;
    }

    #include "include/frontBackUpperPatches"
}


// ************************************************************************* //
